/*--------------------------------*- C++ -*----------------------------------*\
| =========                 |                                                 |
| \\      /  F ield         | OpenFOAM: The Open Source CFD Toolbox           |
|  \\    /   O peration     | Version:  v1812                                 |
|   \\  /    A nd           | Web:      www.OpenFOAM.com                      |
|    \\/     M anipulation  |                                                 |
\*---------------------------------------------------------------------------*/
FoamFile
{
    version     2.0;
    format      ascii;
    class       dictionary;
    location    "system";
    object      controlDict;
}
// * * * * * * * * * * * * * * * * * * * * * * * * * * * * * * * * * * * * * //


application     simpleFoam;
startFrom       latestTime;
startTime       0;
stopAt          endTime;
endTime         150;
deltaT          1;
writeControl    timeStep;
writeInterval   150;
purgeWrite      0;
writeFormat     ascii;
writePrecision  16;
writeCompression on;
timeFormat      general;
timePrecision   16;
runTimeModifiable true;

DebugSwitches
{
//    Pstream 1;
//    UPstream 1;
//    boundaryMesh 1; fvMesh 1; fvMeshDistribute 1; globalMeshData 1; lduMesh 1; polyBoundaryMesh 1; polyMesh 1; polyMeshGeometry 1; polyMeshInfo 1; primitiveMesh 1; primitiveMeshGeometry 1;
}

// * * * * * * * * * * * * * * * * * * * * * * * * * * * * * * * * * * * * * //
