/*--------------------------------*- C++ -*----------------------------------*\
| =========                 |                                                 |
| \\      /  F ield         | OpenFOAM: The Open Source CFD Toolbox           |
|  \\    /   O peration     | Version:  v1812                                 |
|   \\  /    A nd           | Web:      www.OpenFOAM.com                      |
|    \\/     M anipulation  |                                                 |
\*---------------------------------------------------------------------------*/
FoamFile
{
    version     2.0;
    format      ascii;
    class       polyBoundaryMesh;
    location    "constant/polyMesh";
    object      boundary;
}
// * * * * * * * * * * * * * * * * * * * * * * * * * * * * * * * * * * * * * //

8
(
    inlet
    {
        type            patch;
        nFaces          12;
        startFace       183;
    }
    outlet
    {
        type            patch;
        nFaces          13;
        startFace       195;
    }
    walls
    {
        type            wall;
        inGroups        1(wall);
        nFaces          28;
        startFace       208;
    }
    wallsbump
    {
        type            wall;
        inGroups        1(wall);
        nFaces          0;
        startFace       236;
    }
    frontandback
    {
        type            wall;
        inGroups        1(wall);
        nFaces          23;
        startFace       236;
    }
    procBoundary0to1
    {
        type            processor;
        inGroups        1(processor);
        nFaces          36;
        startFace       259;
        matchTolerance  0.0001;
        transform       unknown;
        myProcNo        0;
        neighbProcNo    1;
    }
    procBoundary0to2
    {
        type            processor;
        inGroups        1(processor);
        nFaces          23;
        startFace       295;
        matchTolerance  0.0001;
        transform       unknown;
        myProcNo        0;
        neighbProcNo    2;
    }
    procBoundary0to3
    {
        type            processor;
        inGroups        1(processor);
        nFaces          9;
        startFace       318;
        matchTolerance  0.0001;
        transform       unknown;
        myProcNo        0;
        neighbProcNo    3;
    }
)

// ************************************************************************* //
