/*--------------------------------*- C++ -*----------------------------------*\
| =========                 |                                                 |
| \\      /  F ield         | OpenFOAM: The Open Source CFD Toolbox           |
|  \\    /   O peration     | Version:  v1812                                 |
|   \\  /    A nd           | Web:      www.OpenFOAM.com                      |
|    \\/     M anipulation  |                                                 |
\*---------------------------------------------------------------------------*/
FoamFile
{
    version     2.0;
    format      ascii;
    class       polyBoundaryMesh;
    location    "constant/polyMesh";
    object      boundary;
}
// * * * * * * * * * * * * * * * * * * * * * * * * * * * * * * * * * * * * * //

5
(
    wing
    {
        type            wall;
        inGroups        1(wall);
        nFaces          293;
        startFace       9955;
    }
    sym
    {
        type            symmetry;
        inGroups        1(symmetry);
        nFaces          264;
        startFace       10248;
    }
    inout
    {
        type            patch;
        nFaces          0;
        startFace       10512;
    }
    procBoundary1to0
    {
        type            processor;
        inGroups        1(processor);
        nFaces          336;
        startFace       10512;
        matchTolerance  0.0001;
        transform       unknown;
        myProcNo        1;
        neighbProcNo    0;
    }
    procBoundary1to3
    {
        type            processor;
        inGroups        1(processor);
        nFaces          293;
        startFace       10848;
        matchTolerance  0.0001;
        transform       unknown;
        myProcNo        1;
        neighbProcNo    3;
    }
)

// ************************************************************************* //
