/*--------------------------------*- C++ -*----------------------------------*\
| =========                 |                                                 |
| \\      /  F ield         | OpenFOAM: The Open Source CFD Toolbox           |
|  \\    /   O peration     | Version:  v1812                                 |
|   \\  /    A nd           | Web:      www.OpenFOAM.com                      |
|    \\/     M anipulation  |                                                 |
\*---------------------------------------------------------------------------*/
FoamFile
{
    version     2.0;
    format      ascii;
    class       polyBoundaryMesh;
    location    "constant/polyMesh";
    object      boundary;
}
// * * * * * * * * * * * * * * * * * * * * * * * * * * * * * * * * * * * * * //

7
(
    inlet
    {
        type            patch;
        nFaces          13;
        startFace       191;
    }
    outlet
    {
        type            patch;
        nFaces          12;
        startFace       204;
    }
    walls
    {
        type            wall;
        inGroups        1(wall);
        nFaces          21;
        startFace       216;
    }
    wallsbump
    {
        type            wall;
        inGroups        1(wall);
        nFaces          0;
        startFace       237;
    }
    frontandback
    {
        type            wall;
        inGroups        1(wall);
        nFaces          32;
        startFace       237;
    }
    procBoundary2to0
    {
        type            processor;
        inGroups        1(processor);
        nFaces          23;
        startFace       269;
        matchTolerance  0.0001;
        transform       unknown;
        myProcNo        2;
        neighbProcNo    0;
    }
    procBoundary2to3
    {
        type            processor;
        inGroups        1(processor);
        nFaces          33;
        startFace       292;
        matchTolerance  0.0001;
        transform       unknown;
        myProcNo        2;
        neighbProcNo    3;
    }
)

// ************************************************************************* //
