/*--------------------------------*- C++ -*----------------------------------*\
| =========                 |                                                 |
| \\      /  F ield         | OpenFOAM: The Open Source CFD Toolbox           |
|  \\    /   O peration     | Version:  v1812                                 |
|   \\  /    A nd           | Web:      www.OpenFOAM.com                      |
|    \\/     M anipulation  |                                                 |
\*---------------------------------------------------------------------------*/
FoamFile
{
    version     2.0;
    format      ascii;
    class       polyBoundaryMesh;
    location    "constant/polyMesh";
    object      boundary;
}
// * * * * * * * * * * * * * * * * * * * * * * * * * * * * * * * * * * * * * //

5
(
    wing
    {
        type            wall;
        inGroups        1(wall);
        nFaces          0;
        startFace       9920;
    }
    sym
    {
        type            symmetry;
        inGroups        1(symmetry);
        nFaces          264;
        startFace       9920;
    }
    inout
    {
        type            patch;
        nFaces          292;
        startFace       10184;
    }
    procBoundary2to0
    {
        type            processor;
        inGroups        1(processor);
        nFaces          292;
        startFace       10476;
        matchTolerance  0.0001;
        transform       unknown;
        myProcNo        2;
        neighbProcNo    0;
    }
    procBoundary2to3
    {
        type            processor;
        inGroups        1(processor);
        nFaces          336;
        startFace       10768;
        matchTolerance  0.0001;
        transform       unknown;
        myProcNo        2;
        neighbProcNo    3;
    }
)

// ************************************************************************* //
